&runctl
kbody=4   
NFT=5000000
KMAX_SAVE=100
KP=0
kpbak=0
KPflow=0
&end




